&NAM_OBS
  NOBSTYPE=1
  LOBSNAT=.FALSE.,
  NNCO=0,0,0,0,0,1
  PERROBS_M = 1.0,0.1,0.4,0.2,0.1,0.4
  CFILE_FORMAT_OBS="ASCII",
/
