&NAM_PREP_SURF_ATM
  NYEAR  = YYYY0,
  NMONTH = MM0,
  NDAY   = DD0,
  XTIME  = HH0,
/
&NAM_PREP_ISBA
  XHUG_SURF = 0.2,
  XHUG_ROOT = 0.2,
  XHUG_DEEP = 0.2,
  XTG_SURF  = 285.,
  XTG_ROOT  = 288.,
  XTG_DEEP  = 292.,
/
&NAM_PREP_TEB
  XTI_ROAD = 285.,
  XTI_BLD  = 285.,
  XTS_ROAD = 285.,
  XTS_ROOF = 285.,
  XTS_WALL = 285.,
  XWS_ROAD = 0.,
  XWS_ROOF = 0.,
/
&NAM_PREP_SEAFLUX
  XSST_UNIF = 285.,
/
&NAM_PREP_WATFLUX
  XTS_WATER_UNIF = 285.,
/
&NAM_PREP_ISBA_SNOW
  CSNOW = "3-L",
/
