&NAM_OBS
  NOBSTYPE=1
  LOBSNAT=.FALSE.,
  NNCO=0,0,1,0,0,
  CFILE_FORMAT_OBS="ASCII",
/
