&NAM_SSON
 CROUGH="NONE",
/
&NAM_DIAG_SURFN
  N2M=2,
/
&NAM_DIAG_SURF_ATMn
  LDIAG_GRID=.TRUE.,
/
&NAM_DIAG_ISBAn
  LPGD=.TRUE.,
  LPATCH_BUDGET=.TRUE.,
  LSURF_MISC_BUDGET=.TRUE.,
/
