&NAM_IO_OFFLINE
  CSURF_FILETYPE="NC    ",
  CFORCING_FILETYPE="NETCDF",
  CTIMESERIES_FILETYPE="NETCDF",
  LRESTART=.TRUE.,
  LRESTART_2M=.TRUE.,
  XTSTEP_OUTPUT=3600.,
  CPREPFILE="PREP_SODA",
  CPGDFILE="PGD_SODA",
/
