&NAM_IO_VARASSIM
  LBEV=LBEV,
  LBFIXED=.TRUE.,
  LPRT=LPRT,
  LSIM=LSIM,
/
